-----BEGIN CERTIFICATE-----
UEsDBBQAAAAIAPhCx1x9uL/aTAMAADcGAAATAAAAYWdlbnQtaW5pdC9TS0lMTC5t
ZG1Uy27jRhC88ysa8GXX0AN2ctIhgDZ2AicxkFi7WATQgS2ySY85nCHmYVq3fES+
MF+SmqGoKIkvkjjsqaqurtZyuSwM97IhbsWEpTIqFLX4yqkhKGs29F1BtP3l6/b3
HSnzajuh8Kw8+U5pTRzwJPQq7kg+sAtkG2IyMpIX7wFAB2msE5I3qWJQpiU2Rwrs
uxWAPzvVtuJofBYjQMlo0eNHq17F59rRuo4q2/dsakjIJb8+3bFhrTyUpPd+4EoW
eFvpWINkA+zRqcxnHTl5VTJm8nR1kT4oARwBsKAgPlDFXqhywqlt+vDbdv1l+3nt
pHVTI+tcNWg2HxdA76W3aDqRSKKIQ80BEg6xpUa9QUsPTeGCBS0M7JTPnoRRxCQZ
eNGAM8KiGg5oO/SYQ2IA6GwVGtBArylY2qH4wRzs24oe/jePwVmQwjp9pL/++JNq
S8YGGlkFwhjO9gIeUPI2aFWpgOI0D3pocsE8uWf29BLRdJ4s2NMAUACpIORJGWBq
u0iglzoa5XxYFUukq7iibYoW1EJEErU74X+yNvjgeBggqNjJQXTsYaxBIl64Y0M8
8BDNgjR3MT3D/Lbj5+XpGz461UUQFVdXtAsy0M2GPnHFZ0rgxypNtCjyeaO0zNc2
RVGWZfH9Zv8Flvj94xGKOtptf9zSze3+TnwX7LC/yNr+KWrx+3lVzuCrvs5QxQ8J
HjtEXLOGwJ59SPFGRBttR7q4Q9GE2P2T3nQNI4AuhQkExcPcLh3xXdSqlgY1XiUn
akWJoTdHRnXFjgkupnVIDoMTzEDvNHvV4IZXFNSAGcWWEbk+YnMdmpmwMfHI6nTc
WROk88B3ih5zzNcLPBnCqXTRqwu/bzcnyV/nFhMg3V2KTbMNku2Q/pCm8J6BC3pB
QyY1N/4LC1Zetoup3azo+vrnd1u7vp50YxH6IUxZv03lj+eOUwRSXQafOp/ulHm6
67L45nxh9gJwdexm8PLkSkkf+qjP10+nT/fbu8d7dFRm0+bjVtsD6+X0v5Hefiy+
TTz3J1MBnjvIC9BGkxegl2Brq2174jiPjHysYWit0siK4iccpf2QEX9f59xM67Oi
8j2/yzmjPvZYCOqwfwY5moOZM9WlTUT0/hPT4m9QSwECFAMUAAAACAD4Qsdcfbi/
2kwDAAA3BgAAEwAAAAAAAAAAAAAAwIEAAAAAYWdlbnQtaW5pdC9TS0lMTC5tZFBL
BQYAAAAAAQABAEEAAAB9AwAAAAA=
-----END CERTIFICATE-----
